MODEL 1
REMARK VINA RESULT:   -10.147      0.000      0.000
REMARK INTER + INTRA:         -14.681
REMARK INTER:                 -13.113
REMARK INTRA:                  -1.568
REMARK UNBOUND:                -1.568
REMARK SMILES Cc1ccc(O)c(C)c1-n1c(N)c(C(=O)N2CCn3nccc3C2)c2nc(C3CC3)c(C)nc21
REMARK SMILES IDX 11 1 10 2 34 3 25 4 26 5 27 6 31 7 33 8 32 9 13 10 12 11
REMARK SMILES IDX 9 14 7 15 2 16 5 17 8 18 3 19 1 20 4 21 6 22 14 24 15 25
REMARK SMILES IDX 16 26 17 27 24 28 18 29 23 30 19 31 22 32 20 33 21 34 28 35
REMARK SMILES IDX 29 36 30 37
REMARK H PARENT 12 12 12 13 6 23
REMARK Flexibility Score: inf
ROOT
ATOM      1  C   UNL     1       6.825 -12.820   9.468  1.00  0.00     0.125 A 
ATOM      2  N   UNL     1       5.662 -12.771  10.111  1.00  0.00    -0.278 N 
ATOM      3  C   UNL     1       5.582 -11.545  10.656  1.00  0.00     0.166 A 
ATOM      4  C   UNL     1       6.740 -10.817  10.334  1.00  0.00     0.123 A 
ATOM      5  N   UNL     1       6.769  -9.578  10.820  1.00  0.00    -0.246 NA
ATOM      6  C   UNL     1       5.802  -9.032  11.556  1.00  0.00     0.066 A 
ATOM      7  C   UNL     1       4.651  -9.770  11.872  1.00  0.00     0.062 A 
ATOM      8  N   UNL     1       4.589 -11.015  11.400  1.00  0.00    -0.231 NA
ATOM      9  C   UNL     1       3.577  -9.169  12.687  1.00  0.00     0.069 C 
ATOM     10  C   UNL     1       7.548 -11.627   9.569  1.00  0.00     0.110 A 
ENDROOT
BRANCH   1  11
ATOM     11  N   UNL     1       7.279 -13.962   8.759  1.00  0.00    -0.384 N 
ATOM     12  H   UNL     1       8.114 -14.519   9.000  1.00  0.00     0.158 HD
ATOM     13  H   UNL     1       6.716 -14.254   7.926  1.00  0.00     0.158 HD
ENDBRANCH   1  11
BRANCH   2  14
ATOM     14  C   UNL     1       4.670 -13.787  10.226  1.00  0.00     0.059 A 
ATOM     15  C   UNL     1       4.717 -14.800  11.155  1.00  0.00     0.015 A 
ATOM     16  C   UNL     1       3.593 -13.778   9.375  1.00  0.00    -0.026 A 
ATOM     17  C   UNL     1       3.711 -15.767  11.218  1.00  0.00     0.120 A 
ATOM     18  C   UNL     1       5.838 -14.874  12.100  1.00  0.00     0.051 C 
ATOM     19  C   UNL     1       2.594 -14.720   9.420  1.00  0.00     0.009 A 
ATOM     20  C   UNL     1       3.499 -12.700   8.351  1.00  0.00     0.046 C 
ATOM     21  C   UNL     1       2.642 -15.729  10.346  1.00  0.00     0.047 A 
BRANCH  17  22
ATOM     22  O   UNL     1       3.778 -16.785  12.166  1.00  0.00    -0.508 OA
ATOM     23  H   UNL     1       4.113 -17.700  11.907  1.00  0.00     0.293 HD
ENDBRANCH  17  22
ENDBRANCH   2  14
BRANCH  10  24
ATOM     24  C   UNL     1       8.829 -11.356   8.974  1.00  0.00     0.260 C 
ATOM     25  O   UNL     1       8.932 -11.828   7.745  1.00  0.00    -0.269 OA
BRANCH  24  26
ATOM     26  N   UNL     1       9.966 -10.702   9.428  1.00  0.00    -0.331 N 
ATOM     27  C   UNL     1      10.713 -11.378  10.526  1.00  0.00     0.144 C 
ATOM     28  C   UNL     1      10.526  -9.461   8.996  1.00  0.00     0.175 C 
ATOM     29  C   UNL     1      10.877 -10.310  11.620  1.00  0.00     0.166 C 
ATOM     30  C   UNL     1      11.754  -9.054   9.753  1.00  0.00     0.058 A 
ATOM     31  N   UNL     1      11.926  -9.448  11.047  1.00  0.00    -0.266 N 
ATOM     32  C   UNL     1      12.867  -8.299   9.487  1.00  0.00     0.047 A 
ATOM     33  N   UNL     1      13.037  -8.986  11.544  1.00  0.00    -0.181 NA
ATOM     34  C   UNL     1      13.693  -8.245  10.612  1.00  0.00     0.135 A 
ENDBRANCH  24  26
ENDBRANCH  10  24
BRANCH   6  35
ATOM     35  C   UNL     1       5.895  -7.668  12.064  1.00  0.00     0.040 C 
ATOM     36  C   UNL     1       6.824  -7.354  13.174  1.00  0.00     0.011 C 
ATOM     37  C   UNL     1       7.040  -6.774  11.774  1.00  0.00     0.011 C 
ENDBRANCH   6  35
TORSDOF 6
ENDMDL
