MODEL 1
REMARK VINA RESULT:    -9.423      0.000      0.000
REMARK INTER + INTRA:         -14.981
REMARK INTER:                 -14.380
REMARK INTRA:                  -0.600
REMARK UNBOUND:                -0.600
REMARK SMILES CCN(CC)CCOc1ccc(Nc2ncc3cc(-c4c(Cl)cccc4Cl)c(=O)n(C)c3n2)cc1
REMARK SMILES IDX 8 1 9 2 12 3 11 4 34 5 10 6 35 7 13 8 14 10 19 11 18 12
REMARK SMILES IDX 28 13 17 14 30 15 29 16 32 17 16 18 31 19 33 20 15 21 20 22
REMARK SMILES IDX 21 23 26 24 23 25 22 26 25 27 27 28 24 29 7 30 6 31 3 32
REMARK SMILES IDX 2 33 1 34 4 35 5 36
REMARK H PARENT 13 9
REMARK Flexibility Score: inf
ROOT
ATOM      1  O   UNL     1       6.549  -3.240  14.082  1.00  0.00    -0.492 OA
ENDROOT
BRANCH   1   2
ATOM      2  C   UNL     1       6.979  -4.216  13.218  1.00  0.00     0.119 A 
ATOM      3  C   UNL     1       7.826  -6.253  11.457  1.00  0.00     0.041 A 
ATOM      4  C   UNL     1       8.472  -5.012  11.514  1.00  0.00     0.030 A 
ATOM      5  C   UNL     1       6.762  -6.447  12.291  1.00  0.00     0.030 A 
ATOM      6  C   UNL     1       8.051  -4.018  12.379  1.00  0.00     0.048 A 
ATOM      7  C   UNL     1       6.336  -5.432  13.171  1.00  0.00     0.048 A 
BRANCH   3   8
ATOM      8  N   UNL     1       8.303  -7.228  10.569  1.00  0.00    -0.324 N 
ATOM      9  H   UNL     1       9.198  -6.978  10.047  1.00  0.00     0.170 HD
BRANCH   8  10
ATOM     10  C   UNL     1       7.749  -8.488  10.289  1.00  0.00     0.229 A 
ATOM     11  C   UNL     1       4.620 -12.404  10.330  1.00  0.00     0.051 A 
ATOM     12  C   UNL     1       5.836 -12.117   9.725  1.00  0.00     0.028 A 
ATOM     13  C   UNL     1       4.097 -11.404  11.124  1.00  0.00     0.259 A 
ATOM     14  C   UNL     1       6.482 -10.926   9.899  1.00  0.00     0.037 A 
ATOM     15  N   UNL     1       4.729 -10.232  11.296  1.00  0.00    -0.295 N 
ATOM     16  O   UNL     1       2.980 -11.603  11.709  1.00  0.00    -0.269 OA
ATOM     17  C   UNL     1       5.917  -9.951  10.706  1.00  0.00     0.148 A 
ATOM     18  C   UNL     1       7.691 -10.609   9.315  1.00  0.00     0.127 A 
ATOM     19  C   UNL     1       4.150  -9.204  12.134  1.00  0.00     0.155 C 
ATOM     20  N   UNL     1       6.548  -8.795  10.874  1.00  0.00    -0.194 NA
ATOM     21  N   UNL     1       8.297  -9.431   9.507  1.00  0.00    -0.221 NA
BRANCH  11  22
ATOM     22  C   UNL     1       3.935 -13.687  10.139  1.00  0.00     0.025 A 
ATOM     23  C   UNL     1       4.313 -14.807  10.845  1.00  0.00     0.050 A 
ATOM     24  C   UNL     1       2.890 -13.817   9.247  1.00  0.00     0.050 A 
ATOM     25  C   UNL     1       3.697 -16.036  10.699  1.00  0.00     0.021 A 
ATOM     26  Cl  UNL     1       5.643 -14.641  11.979  1.00  0.00    -0.084 Cl
ATOM     27  C   UNL     1       2.241 -15.041   9.069  1.00  0.00     0.021 A 
ATOM     28  Cl  UNL     1       2.396 -12.408   8.344  1.00  0.00    -0.084 Cl
ATOM     29  C   UNL     1       2.658 -16.139   9.802  1.00  0.00     0.003 A 
ENDBRANCH  11  22
ENDBRANCH   8  10
ENDBRANCH   3   8
ENDBRANCH   1   2
BRANCH   1  30
ATOM     30  C   UNL     1       7.043  -1.917  14.074  1.00  0.00     0.245 C 
BRANCH  30  31
ATOM     31  C   UNL     1       6.019  -0.872  13.819  1.00  0.00     0.126 C 
BRANCH  31  32
ATOM     32  N   UNL     1       5.014  -1.143  12.869  1.00  0.00    -0.301 NA
BRANCH  32  33
ATOM     33  C   UNL     1       5.027  -0.280  11.721  1.00  0.00     0.081 C 
ATOM     34  C   UNL     1       6.350  -0.272  11.029  1.00  0.00     0.021 C 
ENDBRANCH  32  33
BRANCH  32  35
ATOM     35  C   UNL     1       3.725  -1.442  13.394  1.00  0.00     0.081 C 
ATOM     36  C   UNL     1       3.304  -2.823  12.898  1.00  0.00     0.021 C 
ENDBRANCH  32  35
ENDBRANCH  31  32
ENDBRANCH  30  31
ENDBRANCH   1  30
TORSDOF 9
ENDMDL
