MODEL 1
REMARK VINA RESULT:   -10.946      0.000      0.000
REMARK INTER + INTRA:         -13.634
REMARK INTER:                 -12.866
REMARK INTRA:                  -0.768
REMARK UNBOUND:                -0.768
REMARK SMILES Cc1cc2c(C(N)=O)c(N)n(-c3c(C)ccc(O)c3C)c2nc1C
REMARK SMILES IDX 2 1 3 2 4 3 21 4 22 5 23 6 24 7 11 8 9 9 5 10 1 11 6 12 7 13
REMARK SMILES IDX 8 14 12 17 19 18 13 19 17 20 20 21 15 22 14 23 16 24 18 25
REMARK SMILES IDX 10 27
REMARK H PARENT 7 15 7 16 18 26 10 28 10 29
REMARK Flexibility Score: inf
ROOT
ATOM      1  C   UNL     1       7.408  -9.939   9.964  1.00  0.00    -0.029 A 
ATOM      2  C   UNL     1       6.499  -9.459  10.848  1.00  0.00     0.018 A 
ATOM      3  C   UNL     1       5.408 -10.245  11.217  1.00  0.00     0.035 A 
ATOM      4  C   UNL     1       5.329 -11.496  10.637  1.00  0.00     0.147 A 
ATOM      5  N   UNL     1       6.262 -11.943   9.753  1.00  0.00    -0.234 NA
ATOM      6  C   UNL     1       7.301 -11.180   9.410  1.00  0.00     0.043 A 
ATOM      7  C   UNL     1       8.306 -11.691   8.444  1.00  0.00     0.067 C 
ATOM      8  N   UNL     1       4.204 -12.043  11.149  1.00  0.00    -0.279 N 
ATOM      9  C   UNL     1       3.603 -11.192  12.004  1.00  0.00     0.123 A 
ATOM     10  C   UNL     1       4.343 -10.032  12.074  1.00  0.00     0.091 A 
ATOM     11  C   UNL     1       8.565  -9.091   9.583  1.00  0.00     0.046 C 
ENDROOT
BRANCH  10  12
ATOM     12  C   UNL     1       4.075  -8.833  12.872  1.00  0.00     0.253 C 
ATOM     13  N   UNL     1       5.065  -8.173  13.616  1.00  0.00    -0.365 N 
ATOM     14  O   UNL     1       2.896  -8.396  12.873  1.00  0.00    -0.269 OA
ATOM     15  H   UNL     1       5.559  -7.327  13.239  1.00  0.00     0.159 HD
ATOM     16  H   UNL     1       5.311  -8.537  14.562  1.00  0.00     0.159 HD
ENDBRANCH  10  12
BRANCH   8  17
ATOM     17  C   UNL     1       3.739 -13.337  10.820  1.00  0.00     0.059 A 
ATOM     18  C   UNL     1       4.024 -14.395  11.641  1.00  0.00     0.015 A 
ATOM     19  C   UNL     1       3.003 -13.524   9.678  1.00  0.00    -0.026 A 
ATOM     20  C   UNL     1       3.566 -15.652  11.313  1.00  0.00     0.120 A 
ATOM     21  C   UNL     1       4.818 -14.172  12.867  1.00  0.00     0.051 C 
ATOM     22  C   UNL     1       2.548 -14.808   9.363  1.00  0.00     0.009 A 
ATOM     23  C   UNL     1       2.698 -12.387   8.797  1.00  0.00     0.046 C 
ATOM     24  C   UNL     1       2.816 -15.879  10.162  1.00  0.00     0.047 A 
BRANCH  20  25
ATOM     25  O   UNL     1       3.838 -16.743  12.124  1.00  0.00    -0.508 OA
ATOM     26  H   UNL     1       3.274 -16.867  12.946  1.00  0.00     0.293 HD
ENDBRANCH  20  25
ENDBRANCH   8  17
BRANCH   9  27
ATOM     27  N   UNL     1       2.405 -11.385  12.749  1.00  0.00    -0.384 N 
ATOM     28  H   UNL     1       1.724 -12.140  12.583  1.00  0.00     0.158 HD
ATOM     29  H   UNL     1       2.216 -10.707  13.512  1.00  0.00     0.158 HD
ENDBRANCH   9  27
TORSDOF 4
ENDMDL
